* File created on: 2025-05-06 11:09:38
* From this circuit description: ../../examples/INV_string_5_RBUS.json
* "spice" description for "MOSbius_v2_tb", "PK_set_SWMATRIX", "spice" 


simulator lang=spice

.SUBCKT PK_set_SWMATRIX PROBE<1> PROBE<2> PROBE<3> PROBE<4> PROBE<5> PROBE<6>
+  PROBE<7> PROBE<8> PROBE<9> PROBE<10> PROBE<11> PROBE<12> PROBE<13> PROBE<14>
+  PROBE<15> PROBE<16> PROBE<17> PROBE<18> PROBE<19> PROBE<20> PROBE<21>
+  PROBE<22> PROBE<23> PROBE<24> PROBE<25> PROBE<26> PROBE<27> PROBE<28>
+  PROBE<29> PROBE<30> PROBE<31> PROBE<32> PROBE<33> PROBE<34> PROBE<35>
+  PROBE<36> PROBE<37> PROBE<38> PROBE<39> PROBE<40> PROBE<41> PROBE<42>
+  PROBE<43> PROBE<44> PROBE<45> PROBE<46> PROBE<47> PROBE<48> PROBE<49>
+  PROBE<50> PROBE<51> PROBE<52> PROBE<53> PROBE<54> PROBE<55> PROBE<56>
+  PROBE<57> PROBE<58> PROBE<59> PROBE<60> PROBE<61> PROBE<62> PROBE<63>
+  PROBE<64> PROBE<65> PROBE<66> PROBE<67> PROBE<68> PROBE<69> PROBE<70>
+  PROBE<71> PROBE<72> PROBE<73> PROBE<74> PROBE<75> PROBE<76> PROBE<77>
+  PROBE<78> PROBE<79> PROBE<80> PROBE<81> PROBE<82> PROBE<83> PROBE<84>
+  PROBE<85> PROBE<86> PROBE<87> PROBE<88> PROBE<89> PROBE<90> PROBE<91>
+  PROBE<92> PROBE<93> PROBE<94> PROBE<95> PROBE<96> PROBE<97> PROBE<98>
+  PROBE<99> PROBE<100> PROBE<101> PROBE<102> PROBE<103> PROBE<104> PROBE<105>
+  PROBE<106> PROBE<107> PROBE<108> PROBE<109> PROBE<110> PROBE<111> PROBE<112>
+  PROBE<113> PROBE<114> PROBE<115> PROBE<116> PROBE<117> PROBE<118> PROBE<119>
+  PROBE<120> PROBE<121> PROBE<122> PROBE<123> PROBE<124> PROBE<125> PROBE<126>
+  PROBE<127> PROBE<128> PROBE<129> PROBE<130> PROBE<131> PROBE<132> PROBE<133>
+  PROBE<134> PROBE<135> PROBE<136> PROBE<137> PROBE<138> PROBE<139> PROBE<140>
+  PROBE<141> PROBE<142> PROBE<143> PROBE<144> PROBE<145> PROBE<146> PROBE<147>
+  PROBE<148> PROBE<149> PROBE<150> PROBE<151> PROBE<152> PROBE<153> PROBE<154>
+  PROBE<155> PROBE<156> PROBE<157> PROBE<158> PROBE<159> PROBE<160> PROBE<161>
+  PROBE<162> PROBE<163> PROBE<164> PROBE<165> PROBE<166> PROBE<167> PROBE<168>
+  PROBE<169> PROBE<170> PROBE<171> PROBE<172> PROBE<173> PROBE<174> PROBE<175>
+  PROBE<176> PROBE<177> PROBE<178> PROBE<179> PROBE<180> PROBE<181> PROBE<182>
+  PROBE<183> PROBE<184> PROBE<185> PROBE<186> PROBE<187> PROBE<188> PROBE<189>
+  PROBE<190> PROBE<191> PROBE<192> PROBE<193> PROBE<194> PROBE<195> PROBE<196>
+  PROBE<197> PROBE<198> PROBE<199> PROBE<200> PROBE<201> PROBE<202> PROBE<203>
+  PROBE<204> PROBE<205> PROBE<206> PROBE<207> PROBE<208> PROBE<209> PROBE<210>
+  PROBE<211> PROBE<212> PROBE<213> PROBE<214> PROBE<215> PROBE<216> PROBE<217>
+  PROBE<218> PROBE<219> PROBE<220> PROBE<221> PROBE<222> PROBE<223> PROBE<224>
+  PROBE<225> PROBE<226> PROBE<227> PROBE<228> PROBE<229> PROBE<230> PROBE<231>
+  PROBE<232> PROBE<233> PROBE<234> PROBE<235> PROBE<236> PROBE<237> PROBE<238>
+  PROBE<239> PROBE<240> PROBE<241> PROBE<242> PROBE<243> PROBE<244> PROBE<245>
+  PROBE<246> PROBE<247> PROBE<248> PROBE<249> PROBE<250> PROBE<251> PROBE<252>
+  PROBE<253> PROBE<254> PROBE<255> PROBE<256> PROBE<257> PROBE<258> PROBE<259>
+  PROBE<260> PROBE<261> PROBE<262> PROBE<263> PROBE<264> PROBE<265> PROBE<266>
+  PROBE<267> PROBE<268> PROBE<269> PROBE<270> PROBE<271> PROBE<272> PROBE<273>
+  PROBE<274> PROBE<275> PROBE<276> PROBE<277> PROBE<278> PROBE<279> PROBE<280>
+  PROBE<281> PROBE<282> PROBE<283> PROBE<284> PROBE<285> PROBE<286> PROBE<287>
+  PROBE<288> PROBE<289> PROBE<290> PROBE<291> PROBE<292> PROBE<293> PROBE<294>
+  PROBE<295> PROBE<296> PROBE<297> PROBE<298> PROBE<299> PROBE<300> PROBE<301>
+  PROBE<302> PROBE<303> PROBE<304> PROBE<305> PROBE<306> PROBE<307> PROBE<308>
+  PROBE<309> PROBE<310> PROBE<311> PROBE<312> PROBE<313> PROBE<314> PROBE<315>
+  PROBE<316> PROBE<317> PROBE<318> PROBE<319> PROBE<320> PROBE<321> PROBE<322>
+  PROBE<323> PROBE<324> PROBE<325> PROBE<326> PROBE<327> PROBE<328> PROBE<329>
+  PROBE<330> PROBE<331> PROBE<332> PROBE<333> PROBE<334> PROBE<335> PROBE<336>
+  PROBE<337> PROBE<338> PROBE<339> PROBE<340> PROBE<341> PROBE<342> PROBE<343>
+  PROBE<344> PROBE<345> PROBE<346> PROBE<347> PROBE<348> PROBE<349> PROBE<350>
+  PROBE<351> PROBE<352> PROBE<353> PROBE<354> PROBE<355> PROBE<356> PROBE<357>
+  PROBE<358> PROBE<359> PROBE<360> PROBE<361> PROBE<362> PROBE<363> PROBE<364>
+  PROBE<365> PROBE<366> PROBE<367> PROBE<368> PROBE<369> PROBE<370> PROBE<371>
+  PROBE<372> PROBE<373> PROBE<374> PROBE<375> PROBE<376> PROBE<377> PROBE<378>
+  PROBE<379> PROBE<380> PROBE<381> PROBE<382> PROBE<383> PROBE<384> PROBE<385>
+  PROBE<386> PROBE<387> PROBE<388> PROBE<389> PROBE<390> PROBE<391> PROBE<392>
+  PROBE<393> PROBE<394> PROBE<395> PROBE<396> PROBE<397> PROBE<398> PROBE<399>
+  PROBE<400> PROBE<401> PROBE<402> PROBE<403> PROBE<404> PROBE<405> PROBE<406>
+  PROBE<407> PROBE<408> PROBE<409> PROBE<410> PROBE<411> PROBE<412> PROBE<413>
+  PROBE<414> PROBE<415> PROBE<416> PROBE<417> PROBE<418> PROBE<419> PROBE<420>
+  PROBE<421> PROBE<422> PROBE<423> PROBE<424> PROBE<425> PROBE<426> PROBE<427>
+  PROBE<428> PROBE<429> PROBE<430> PROBE<431> PROBE<432> PROBE<433> PROBE<434>
+  PROBE<435> PROBE<436> PROBE<437> PROBE<438> PROBE<439> PROBE<440> PROBE<441>
+  PROBE<442> PROBE<443> PROBE<444> PROBE<445> PROBE<446> PROBE<447> PROBE<448>
+  PROBE<449> PROBE<450> PROBE<451> PROBE<452> PROBE<453> PROBE<454> PROBE<455>
+  PROBE<456> PROBE<457> PROBE<458> PROBE<459> PROBE<460> PROBE<461> PROBE<462>
+  PROBE<463> PROBE<464> PROBE<465> PROBE<466> PROBE<467> PROBE<468> PROBE<469>
+  PROBE<470> PROBE<471> PROBE<472> PROBE<473> PROBE<474> PROBE<475> PROBE<476>
+  PROBE<477> PROBE<478> PROBE<479> PROBE<480> PROBE<481> PROBE<482> PROBE<483>
+  PROBE<484> PROBE<485> PROBE<486> PROBE<487> PROBE<488> PROBE<489> PROBE<490>
+  PROBE<491> PROBE<492> PROBE<493> PROBE<494> PROBE<495> PROBE<496> PROBE<497>
+  PROBE<498> PROBE<499> PROBE<500> PROBE<501> PROBE<502> PROBE<503> PROBE<504>
+  PROBE<505> PROBE<506> PROBE<507> PROBE<508> PROBE<509> PROBE<510> PROBE<511>
+  PROBE<512> PROBE<513> PROBE<514> PROBE<515> PROBE<516> PROBE<517> PROBE<518>
+  PROBE<519> PROBE<520> PROBE<521> PROBE<522> PROBE<523> PROBE<524> PROBE<525>
+  PROBE<526> PROBE<527> PROBE<528> PROBE<529> PROBE<530> PROBE<531> PROBE<532>
+  PROBE<533> PROBE<534> PROBE<535> PROBE<536> PROBE<537> PROBE<538> PROBE<539>
+  PROBE<540> PROBE<541> PROBE<542> PROBE<543> PROBE<544> PROBE<545> PROBE<546>
+  PROBE<547> PROBE<548> PROBE<549> PROBE<550> PROBE<551> PROBE<552> PROBE<553>
+  PROBE<554> PROBE<555> PROBE<556> PROBE<557> PROBE<558> PROBE<559> PROBE<560>
+  PROBE<561> PROBE<562> PROBE<563> PROBE<564> PROBE<565> PROBE<566> PROBE<567>
+  PROBE<568> PROBE<569> PROBE<570> PROBE<571> PROBE<572> PROBE<573> PROBE<574>
+  PROBE<575> PROBE<576> PROBE<577> PROBE<578> PROBE<579> PROBE<580> PROBE<581>
+  PROBE<582> PROBE<583> PROBE<584> PROBE<585> PROBE<586> PROBE<587> PROBE<588>
+  PROBE<589> PROBE<590> PROBE<591> PROBE<592> PROBE<593> PROBE<594> PROBE<595>
+  PROBE<596> PROBE<597> PROBE<598> PROBE<599> PROBE<600> PROBE<601> PROBE<602>
+  PROBE<603> PROBE<604> PROBE<605> PROBE<606> PROBE<607> PROBE<608> PROBE<609>
+  PROBE<610> PROBE<611> PROBE<612> PROBE<613> PROBE<614> PROBE<615> PROBE<616>
+  PROBE<617> PROBE<618> PROBE<619> PROBE<620> PROBE<621> PROBE<622> PROBE<623>
+  PROBE<624> PROBE<625> PROBE<626> PROBE<627> PROBE<628> PROBE<629> PROBE<630>
+  PROBE<631> PROBE<632> PROBE<633> PROBE<634> PROBE<635> PROBE<636> PROBE<637>
+  PROBE<638> PROBE<639> PROBE<640> PROBE<641> PROBE<642> PROBE<643> PROBE<644>
+  PROBE<645> PROBE<646> PROBE<647> PROBE<648> PROBE<649> PROBE<650> PROBE<651>
+  PROBE<652> PROBE<653> PROBE<654> PROBE<655> PROBE<656> PROBE<657> PROBE<658>
+  PROBE<659> PROBE<660> PROBE<661> PROBE<662> PROBE<663> PROBE<664> PROBE<665>
+  PROBE<666> PROBE<667> PROBE<668> PROBE<669> PROBE<670> PROBE<671> PROBE<672>
+  PROBE<673> PROBE<674> PROBE<675> PROBE<676> PROBE<677> PROBE<678> PROBE<679>
+  PROBE<680> PROBE<681> PROBE<682> PROBE<683> PROBE<684> PROBE<685> PROBE<686>
+  PROBE<687> PROBE<688> PROBE<689> PROBE<690> PROBE<691> PROBE<692> PROBE<693>
+  PROBE<694> PROBE<695> PROBE<696> PROBE<697> PROBE<698> PROBE<699> PROBE<700>
+  PROBE<701> PROBE<702> PROBE<703> PROBE<704> PROBE<705> PROBE<706> PROBE<707>
+  PROBE<708> PROBE<709> PROBE<710> PROBE<711> PROBE<712> PROBE<713> PROBE<714>
+  PROBE<715> PROBE<716> PROBE<717> PROBE<718> PROBE<719> PROBE<720> PROBE<721>
+  PROBE<722> PROBE<723> PROBE<724> PROBE<725> PROBE<726> PROBE<727> PROBE<728>
+  PROBE<729> PROBE<730> PROBE<731> PROBE<732> PROBE<733> PROBE<734> PROBE<735>
+  PROBE<736> PROBE<737> PROBE<738> PROBE<739> PROBE<740> PROBE<741> PROBE<742>
+  PROBE<743> PROBE<744> PROBE<745> PROBE<746> PROBE<747> PROBE<748> PROBE<749>
+  PROBE<750> PROBE<751> PROBE<752> PROBE<753> PROBE<754> PROBE<755> PROBE<756>
+  PROBE<757> PROBE<758> PROBE<759> PROBE<760> PROBE<761> PROBE<762> PROBE<763>
+  PROBE<764> PROBE<765> PROBE<766> PROBE<767> PROBE<768> PROBE<769> PROBE<770>
+  PROBE<771> PROBE<772> PROBE<773> PROBE<774> PROBE<775> PROBE<776> PROBE<777>
+  PROBE<778> PROBE<779> PROBE<780> PROBE<781> PROBE<782> PROBE<783> PROBE<784>
+  PROBE<785> PROBE<786> PROBE<787> PROBE<788> PROBE<789> PROBE<790> PROBE<791>
+  PROBE<792> PROBE<793> PROBE<794> PROBE<795> PROBE<796> PROBE<797> PROBE<798>
+  PROBE<799> PROBE<800> PROBE<801> PROBE<802> PROBE<803> PROBE<804> PROBE<805>
+  PROBE<806> PROBE<807> PROBE<808> PROBE<809> PROBE<810> PROBE<811> PROBE<812>
+  PROBE<813> PROBE<814> PROBE<815> PROBE<816> PROBE<817> PROBE<818> PROBE<819>
+  PROBE<820> PROBE<821> PROBE<822> PROBE<823> PROBE<824> PROBE<825> PROBE<826>
+  PROBE<827> PROBE<828> PROBE<829> PROBE<830> PROBE<831> PROBE<832> PROBE<833>
+  PROBE<834> PROBE<835> PROBE<836> PROBE<837> PROBE<838> PROBE<839> PROBE<840>
+  PROBE<841> PROBE<842> PROBE<843> PROBE<844> PROBE<845> PROBE<846> PROBE<847>
+  PROBE<848> PROBE<849> PROBE<850> PROBE<851> PROBE<852> PROBE<853> PROBE<854>
+  PROBE<855> PROBE<856> PROBE<857> PROBE<858> PROBE<859> PROBE<860> PROBE<861>
+  PROBE<862> PROBE<863> PROBE<864> PROBE<865> PROBE<866> PROBE<867> PROBE<868>
+  PROBE<869> PROBE<870> PROBE<871> PROBE<872> PROBE<873> PROBE<874> PROBE<875>
+  PROBE<876> PROBE<877> PROBE<878> PROBE<879> PROBE<880> PROBE<881> PROBE<882>
+  PROBE<883> PROBE<884> PROBE<885> PROBE<886> PROBE<887> PROBE<888> PROBE<889>
+  PROBE<890> PROBE<891> PROBE<892> PROBE<893> PROBE<894> PROBE<895> PROBE<896>
+  PROBE<897> PROBE<898> PROBE<899> PROBE<900> PROBE<901> PROBE<902> PROBE<903>
+  PROBE<904> PROBE<905> PROBE<906> PROBE<907> PROBE<908> PROBE<909> PROBE<910>
+  PROBE<911> PROBE<912> PROBE<913> PROBE<914> PROBE<915> PROBE<916> PROBE<917>
+  PROBE<918> PROBE<919> PROBE<920> PROBE<921> PROBE<922> PROBE<923> PROBE<924>
+  PROBE<925> PROBE<926> PROBE<927> PROBE<928> PROBE<929> PROBE<930> PROBE<931>
+  PROBE<932> PROBE<933> PROBE<934> PROBE<935> PROBE<936> PROBE<937> PROBE<938>
+  PROBE<939> PROBE<940> PROBE<941> PROBE<942> PROBE<943> PROBE<944> PROBE<945>
+  PROBE<946> PROBE<947> PROBE<948> PROBE<949> PROBE<950> PROBE<951> PROBE<952>
+  PROBE<953> PROBE<954> PROBE<955> PROBE<956> PROBE<957> PROBE<958> PROBE<959>
+  PROBE<960> PROBE<961> PROBE<962> PROBE<963> PROBE<964> PROBE<965> PROBE<966>
+  PROBE<967> PROBE<968> PROBE<969> PROBE<970> PROBE<971> PROBE<972> PROBE<973>
+  PROBE<974> PROBE<975> PROBE<976> PROBE<977> PROBE<978> PROBE<979> PROBE<980>
+  PROBE<981> PROBE<982> PROBE<983> PROBE<984> PROBE<985> PROBE<986> PROBE<987>
+  PROBE<988> PROBE<989> PROBE<990> PROBE<991> PROBE<992> PROBE<993> PROBE<994>
+  PROBE<995> PROBE<996> PROBE<997> PROBE<998> PROBE<999> PROBE<1000> PROBE<1001>
+  PROBE<1002> PROBE<1003> PROBE<1004> PROBE<1005> PROBE<1006> PROBE<1007>
+  PROBE<1008> PROBE<1009> PROBE<1010> PROBE<1011> PROBE<1012> PROBE<1013>
+  PROBE<1014> PROBE<1015> PROBE<1016> PROBE<1017> PROBE<1018> PROBE<1019>
+  PROBE<1020> PROBE<1021> PROBE<1022> PROBE<1023> PROBE<1024> PROBE<1025>
+  PROBE<1026> PROBE<1027> PROBE<1028> PROBE<1029> PROBE<1030> PROBE<1031>
+  PROBE<1032> PROBE<1033> PROBE<1034> PROBE<1035> PROBE<1036> PROBE<1037>
+  PROBE<1038> PROBE<1039> PROBE<1040> PROBE<1041> PROBE<1042> PROBE<1043>
+  PROBE<1044> PROBE<1045> PROBE<1046> PROBE<1047> PROBE<1048> PROBE<1049>
+  PROBE<1050> PROBE<1051> PROBE<1052> PROBE<1053> PROBE<1054> PROBE<1055>
+  PROBE<1056> PROBE<1057> PROBE<1058> PROBE<1059> PROBE<1060> PROBE<1061>
+  PROBE<1062> PROBE<1063> PROBE<1064> PROBE<1065> PROBE<1066> PROBE<1067>
+  PROBE<1068> PROBE<1069> PROBE<1070> PROBE<1071> PROBE<1072> PROBE<1073>
+  PROBE<1074> PROBE<1075> PROBE<1076> PROBE<1077> PROBE<1078> PROBE<1079>
+  PROBE<1080> PROBE<1081> PROBE<1082> PROBE<1083> PROBE<1084> PROBE<1085>
+  PROBE<1086> PROBE<1087> PROBE<1088> PROBE<1089> PROBE<1090> PROBE<1091>
+  PROBE<1092> PROBE<1093> PROBE<1094> PROBE<1095> PROBE<1096> PROBE<1097>
+  PROBE<1098> PROBE<1099> PROBE<1100> PROBE<1101> PROBE<1102> PROBE<1103>
+  PROBE<1104> PROBE<1105> PROBE<1106> PROBE<1107> PROBE<1108> PROBE<1109>
+  PROBE<1110> PROBE<1111> PROBE<1112> PROBE<1113> PROBE<1114> PROBE<1115>
+  PROBE<1116> PROBE<1117> PROBE<1118> PROBE<1119> PROBE<1120> PROBE<1121>
+  PROBE<1122> PROBE<1123> PROBE<1124> PROBE<1125> PROBE<1126> PROBE<1127>
+  PROBE<1128> PROBE<1129> PROBE<1130> PROBE<1131> PROBE<1132> PROBE<1133>
+  PROBE<1134> PROBE<1135> PROBE<1136> PROBE<1137> PROBE<1138> PROBE<1139>
+  PROBE<1140> PROBE<1141> PROBE<1142> PROBE<1143> PROBE<1144> PROBE<1145>
+  PROBE<1146> PROBE<1147> PROBE<1148> PROBE<1149> PROBE<1150> PROBE<1151>
+  PROBE<1152> PROBE<1153> PROBE<1154> PROBE<1155> PROBE<1156> PROBE<1157>
+  PROBE<1158> PROBE<1159> PROBE<1160> PROBE<1161> PROBE<1162> PROBE<1163>
+  PROBE<1164> PROBE<1165> PROBE<1166> PROBE<1167> PROBE<1168> PROBE<1169>
+  PROBE<1170> PROBE<1171> PROBE<1172> PROBE<1173> PROBE<1174> PROBE<1175>
+  PROBE<1176> PROBE<1177> PROBE<1178> PROBE<1179> PROBE<1180> PROBE<1181>
+  PROBE<1182> PROBE<1183> PROBE<1184> PROBE<1185> PROBE<1186> PROBE<1187>
+  PROBE<1188> PROBE<1189> PROBE<1190> PROBE<1191> PROBE<1192> PROBE<1193>
+  PROBE<1194> PROBE<1195> PROBE<1196> PROBE<1197> PROBE<1198> PROBE<1199>
+  PROBE<1200> PROBE<1201> PROBE<1202> PROBE<1203> PROBE<1204> PROBE<1205>
+  PROBE<1206> PROBE<1207> PROBE<1208> PROBE<1209> PROBE<1210> PROBE<1211>
+  PROBE<1212> PROBE<1213> PROBE<1214> PROBE<1215> PROBE<1216> PROBE<1217>
+  PROBE<1218> PROBE<1219> PROBE<1220> PROBE<1221> PROBE<1222> PROBE<1223>
+  PROBE<1224> PROBE<1225> PROBE<1226> PROBE<1227> PROBE<1228> PROBE<1229>
+  PROBE<1230> PROBE<1231> PROBE<1232> PROBE<1233> PROBE<1234> PROBE<1235>
+  PROBE<1236> PROBE<1237> PROBE<1238> PROBE<1239> PROBE<1240> PROBE<1241>
+  PROBE<1242> PROBE<1243> PROBE<1244> PROBE<1245> PROBE<1246> PROBE<1247>
+  PROBE<1248> PROBE<1249> PROBE<1250> PROBE<1251> PROBE<1252> PROBE<1253>
+  PROBE<1254> PROBE<1255> PROBE<1256> PROBE<1257> PROBE<1258> PROBE<1259>
+  PROBE<1260> PROBE<1261> PROBE<1262> PROBE<1263> PROBE<1264> PROBE<1265>
+  PROBE<1266> PROBE<1267> PROBE<1268> PROBE<1269> PROBE<1270> PROBE<1271>
+  PROBE<1272> PROBE<1273> PROBE<1274> PROBE<1275> PROBE<1276> PROBE<1277>
+  PROBE<1278> PROBE<1279> PROBE<1280> PROBE<1281> PROBE<1282> PROBE<1283>
+  PROBE<1284> PROBE<1285> PROBE<1286> PROBE<1287> PROBE<1288> PROBE<1289>
+  PROBE<1290> PROBE<1291> PROBE<1292> PROBE<1293> PROBE<1294> PROBE<1295>
+  PROBE<1296> PROBE<1297> PROBE<1298> PROBE<1299> PROBE<1300> PROBE<1301>
+  PROBE<1302> PROBE<1303> PROBE<1304> PROBE<1305> PROBE<1306> PROBE<1307>
+  PROBE<1308> PROBE<1309> PROBE<1310> PROBE<1311> PROBE<1312> PROBE<1313>
+  PROBE<1314> PROBE<1315> PROBE<1316> PROBE<1317> PROBE<1318> PROBE<1319>
+  PROBE<1320> PROBE<1321> PROBE<1322> PROBE<1323> PROBE<1324> PROBE<1325>
+  PROBE<1326> PROBE<1327> PROBE<1328> PROBE<1329> PROBE<1330> PROBE<1331>
+  PROBE<1332> PROBE<1333> PROBE<1334> PROBE<1335> PROBE<1336> PROBE<1337>
+  PROBE<1338> PROBE<1339> PROBE<1340> PROBE<1341> PROBE<1342> PROBE<1343>
+  PROBE<1344> PROBE<1345> PROBE<1346> PROBE<1347> PROBE<1348> PROBE<1349>
+  PROBE<1350> PROBE<1351> PROBE<1352> PROBE<1353> PROBE<1354> PROBE<1355>
+  PROBE<1356> PROBE<1357> PROBE<1358> PROBE<1359> PROBE<1360> PROBE<1361>
+  PROBE<1362> PROBE<1363> PROBE<1364> PROBE<1365> PROBE<1366> PROBE<1367>
+  PROBE<1368> PROBE<1369> PROBE<1370> PROBE<1371> PROBE<1372> PROBE<1373>
+  PROBE<1374> PROBE<1375> PROBE<1376> PROBE<1377> PROBE<1378> PROBE<1379>
+  PROBE<1380> PROBE<1381> PROBE<1382> PROBE<1383> PROBE<1384> PROBE<1385>
+  PROBE<1386> PROBE<1387> PROBE<1388> PROBE<1389> PROBE<1390> PROBE<1391>
+  PROBE<1392> PROBE<1393> PROBE<1394> PROBE<1395> PROBE<1396> PROBE<1397>
+  PROBE<1398> PROBE<1399> PROBE<1400> PROBE<1401> PROBE<1402> PROBE<1403>
+  PROBE<1404> PROBE<1405> PROBE<1406> PROBE<1407> PROBE<1408> PROBE<1409>
+  PROBE<1410> PROBE<1411> PROBE<1412> PROBE<1413> PROBE<1414> PROBE<1415>
+  PROBE<1416> PROBE<1417> PROBE<1418> PROBE<1419> PROBE<1420> PROBE<1421>
+  PROBE<1422> PROBE<1423> PROBE<1424> PROBE<1425> PROBE<1426> PROBE<1427>
+  PROBE<1428> PROBE<1429> PROBE<1430> PROBE<1431> PROBE<1432> PROBE<1433>
+  PROBE<1434> PROBE<1435> PROBE<1436> PROBE<1437> PROBE<1438> PROBE<1439>
+  PROBE<1440> PROBE<1441> PROBE<1442> PROBE<1443> PROBE<1444> PROBE<1445>
+  PROBE<1446> PROBE<1447> PROBE<1448> PROBE<1449> PROBE<1450> PROBE<1451>
+  PROBE<1452> PROBE<1453> PROBE<1454> PROBE<1455> PROBE<1456> PROBE<1457>
+  PROBE<1458> PROBE<1459> PROBE<1460> PROBE<1461> PROBE<1462> PROBE<1463>
+  PROBE<1464> PROBE<1465> PROBE<1466> PROBE<1467> PROBE<1468> PROBE<1469>
+  PROBE<1470> PROBE<1471> PROBE<1472> PROBE<1473> PROBE<1474> PROBE<1475>
+  PROBE<1476> PROBE<1477> PROBE<1478> PROBE<1479> PROBE<1480> PROBE<1481>
+  PROBE<1482> PROBE<1483> PROBE<1484> PROBE<1485> PROBE<1486> PROBE<1487>
+  PROBE<1488> PROBE<1489> PROBE<1490> PROBE<1491> PROBE<1492> PROBE<1493>
+  PROBE<1494> PROBE<1495> PROBE<1496> PROBE<1497> PROBE<1498> PROBE<1499>
+  PROBE<1500> PROBE<1501> PROBE<1502> PROBE<1503> PROBE<1504> PROBE<1505>
+  PROBE<1506> PROBE<1507> PROBE<1508> PROBE<1509> PROBE<1510> PROBE<1511>
+  PROBE<1512> PROBE<1513> PROBE<1514> PROBE<1515> PROBE<1516> PROBE<1517>
+  PROBE<1518> PROBE<1519> PROBE<1520> PROBE<1521> PROBE<1522> PROBE<1523>
+  PROBE<1524> PROBE<1525> PROBE<1526> PROBE<1527> PROBE<1528> PROBE<1529>
+  PROBE<1530> PROBE<1531> PROBE<1532> PROBE<1533> PROBE<1534> PROBE<1535>
+  PROBE<1536> PROBE<1537> PROBE<1538> PROBE<1539> PROBE<1540> PROBE<1541>
+  PROBE<1542> PROBE<1543> PROBE<1544> PROBE<1545> PROBE<1546> PROBE<1547>
+  PROBE<1548> PROBE<1549> PROBE<1550> PROBE<1551> PROBE<1552> PROBE<1553>
+  PROBE<1554> PROBE<1555> PROBE<1556> PROBE<1557> PROBE<1558> PROBE<1559>
+  PROBE<1560> PROBE<1561> PROBE<1562> PROBE<1563> PROBE<1564> PROBE<1565>
+  PROBE<1566> PROBE<1567> PROBE<1568> PROBE<1569> PROBE<1570> PROBE<1571>
+  PROBE<1572> PROBE<1573> PROBE<1574> PROBE<1575> PROBE<1576> PROBE<1577>
+  PROBE<1578> PROBE<1579> PROBE<1580> PROBE<1581> PROBE<1582> PROBE<1583>
+  PROBE<1584> PROBE<1585> PROBE<1586> PROBE<1587> PROBE<1588> PROBE<1589>
+  PROBE<1590> PROBE<1591> PROBE<1592> PROBE<1593> PROBE<1594> PROBE<1595>
+  PROBE<1596> PROBE<1597> PROBE<1598> PROBE<1599> PROBE<1600> PROBE<1601>
+  PROBE<1602> PROBE<1603> PROBE<1604> PROBE<1605> PROBE<1606> PROBE<1607>
+  PROBE<1608> PROBE<1609> PROBE<1610> PROBE<1611> PROBE<1612> PROBE<1613>
+  PROBE<1614> PROBE<1615> PROBE<1616> PROBE<1617> PROBE<1618> PROBE<1619>
+  PROBE<1620> PROBE<1621> PROBE<1622> PROBE<1623> PROBE<1624> PROBE<1625>
+  PROBE<1626> PROBE<1627> PROBE<1628> PROBE<1629> PROBE<1630> PROBE<1631>
+  PROBE<1632> PROBE<1633> PROBE<1634> PROBE<1635> PROBE<1636> PROBE<1637>
+  PROBE<1638> PROBE<1639> PROBE<1640> PROBE<1641> PROBE<1642> PROBE<1643>
+  PROBE<1644> PROBE<1645> PROBE<1646> PROBE<1647> PROBE<1648> PROBE<1649>
+  PROBE<1650> PROBE<1651> PROBE<1652> PROBE<1653> PROBE<1654> PROBE<1655>
+  PROBE<1656> PROBE<1657> PROBE<1658> PROBE<1659> PROBE<1660> PROBE<1661>
+  PROBE<1662> PROBE<1663> PROBE<1664> PROBE<1665> PROBE<1666> PROBE<1667>
+  PROBE<1668> PROBE<1669> PROBE<1670> PROBE<1671> PROBE<1672> PROBE<1673>
+  PROBE<1674> PROBE<1675> PROBE<1676> PROBE<1677> PROBE<1678> PROBE<1679>
+  PROBE<1680> PROBE<1681> PROBE<1682> PROBE<1683> PROBE<1684> PROBE<1685>
+  PROBE<1686> PROBE<1687> PROBE<1688> PROBE<1689> PROBE<1690> PROBE<1691>
+  PROBE<1692> PROBE<1693> PROBE<1694> PROBE<1695> PROBE<1696> PROBE<1697>
+  PROBE<1698> PROBE<1699> PROBE<1700> PROBE<1701> PROBE<1702> PROBE<1703>
+  PROBE<1704> PROBE<1705> PROBE<1706> PROBE<1707> PROBE<1708> PROBE<1709>
+  PROBE<1710> PROBE<1711> PROBE<1712> PROBE<1713> PROBE<1714> PROBE<1715>
+  PROBE<1716> PROBE<1717> PROBE<1718> PROBE<1719> PROBE<1720> PROBE<1721>
+  PROBE<1722> PROBE<1723> PROBE<1724> PROBE<1725> PROBE<1726> PROBE<1727>
+  PROBE<1728> PROBE<1729> PROBE<1730> PROBE<1731> PROBE<1732> PROBE<1733>
+  PROBE<1734> PROBE<1735> PROBE<1736> PROBE<1737> PROBE<1738> PROBE<1739>
+  PROBE<1740> PROBE<1741> PROBE<1742> PROBE<1743> PROBE<1744> PROBE<1745>
+  PROBE<1746> PROBE<1747> PROBE<1748> PROBE<1749> PROBE<1750> PROBE<1751>
+  PROBE<1752> PROBE<1753> PROBE<1754> PROBE<1755> PROBE<1756> PROBE<1757>
+  PROBE<1758> PROBE<1759> PROBE<1760> PROBE<1761> PROBE<1762> PROBE<1763>
+  PROBE<1764> PROBE<1765> PROBE<1766> PROBE<1767> PROBE<1768> PROBE<1769>
+  PROBE<1770> PROBE<1771> PROBE<1772> PROBE<1773> PROBE<1774> PROBE<1775>
+  PROBE<1776> PROBE<1777> PROBE<1778> PROBE<1779> PROBE<1780> PROBE<1781>
+  PROBE<1782> PROBE<1783> PROBE<1784> PROBE<1785> PROBE<1786> PROBE<1787>
+  PROBE<1788> PROBE<1789> PROBE<1790> PROBE<1791> PROBE<1792> PROBE<1793>
+  PROBE<1794> PROBE<1795> PROBE<1796> PROBE<1797> PROBE<1798> PROBE<1799>
+  PROBE<1800> PROBE<1801> PROBE<1802> PROBE<1803> PROBE<1804> PROBE<1805>
+  PROBE<1806> PROBE<1807> PROBE<1808> PROBE<1809> PROBE<1810> PROBE<1811>
+  PROBE<1812> PROBE<1813> PROBE<1814> PROBE<1815> PROBE<1816> PROBE<1817>
+  PROBE<1818> PROBE<1819> PROBE<1820> PROBE<1821> PROBE<1822> PROBE<1823>
+  PROBE<1824> PROBE<1825> PROBE<1826> PROBE<1827> PROBE<1828> PROBE<1829>
+  PROBE<1830> PROBE<1831> PROBE<1832> PROBE<1833> PROBE<1834> PROBE<1835>
+  PROBE<1836> PROBE<1837> PROBE<1838> PROBE<1839> PROBE<1840> PROBE<1841>
+  PROBE<1842> PROBE<1843> PROBE<1844> PROBE<1845> PROBE<1846> PROBE<1847>
+  PROBE<1848> PROBE<1849> PROBE<1850> PROBE<1851> PROBE<1852> PROBE<1853>
+  PROBE<1854> PROBE<1855> PROBE<1856> PROBE<1857> PROBE<1858> PROBE<1859>
+  PROBE<1860> PROBE<1861> PROBE<1862> PROBE<1863> PROBE<1864> PROBE<1865>
+  PROBE<1866> PROBE<1867> PROBE<1868> PROBE<1869> PROBE<1870> PROBE<1871>
+  PROBE<1872> PROBE<1873> PROBE<1874> PROBE<1875> PROBE<1876> PROBE<1877>
+  PROBE<1878> PROBE<1879> PROBE<1880> PROBE<1881> PROBE<1882> PROBE<1883>
+  PROBE<1884> PROBE<1885> PROBE<1886> PROBE<1887> PROBE<1888> VDD VSS
* Connection: RBUS8, Pin: VDD, sw_matrix_pin: 91.0, Register: 1887
VVDD_to_RBUS8 PROBE<1887> VDD 0
* Connection: RBUS8, Pin: DCC1_N_G_L_CS, sw_matrix_pin: 56.0, Register: 1403
VDCC1_N_G_L_CS_to_RBUS8 PROBE<1403> VDD 0
* Connection: RBUS8, Pin: DCC1_N_G_R_CS, sw_matrix_pin: 58.0, Register: 1405
VDCC1_N_G_R_CS_to_RBUS8 PROBE<1405> VDD 0
* Connection: RBUS8, Pin: DCC2_N_G_L_CS, sw_matrix_pin: 32.0, Register: 930
VDCC2_N_G_L_CS_to_RBUS8 PROBE<930> VDD 0
* Connection: RBUS8, Pin: DCC2_N_G_R_CS, sw_matrix_pin: 34.0, Register: 932
VDCC2_N_G_R_CS_to_RBUS8 PROBE<932> VDD 0
* Connection: RBUS8, Pin: DCC3_N_G_L_CS, sw_matrix_pin: 40.0, Register: 938
VDCC3_N_G_L_CS_to_RBUS8 PROBE<938> VDD 0
* Connection: RBUS7, Pin: VSS, sw_matrix_pin: 92.0, Register: 1865
VVSS_to_RBUS7 PROBE<1865> VDD 0
* Connection: RBUS7, Pin: DCC1_P_G_L_CS, sw_matrix_pin: 86.0, Register: 1859
VDCC1_P_G_L_CS_to_RBUS7 PROBE<1859> VDD 0
* Connection: RBUS7, Pin: DCC1_P_G_R_CS, sw_matrix_pin: 88.0, Register: 1861
VDCC1_P_G_R_CS_to_RBUS7 PROBE<1861> VDD 0
* Connection: RBUS7, Pin: DCC2_P_G_L_CS, sw_matrix_pin: 63.0, Register: 1387
VDCC2_P_G_L_CS_to_RBUS7 PROBE<1387> VDD 0
* Connection: RBUS7, Pin: DCC2_P_G_R_CS, sw_matrix_pin: 65.0, Register: 1389
VDCC2_P_G_R_CS_to_RBUS7 PROBE<1389> VDD 0
* Connection: RBUS7, Pin: DCC3_P_G_L_CS, sw_matrix_pin: 47.0, Register: 1371
VDCC3_P_G_L_CS_to_RBUS7 PROBE<1371> VDD 0
* Connection: RBUS1, Pin: DCC1_N_G_L_CC, sw_matrix_pin: 55.0, Register: 1241
VDCC1_N_G_L_CC_to_RBUS1 PROBE<1241> VDD 0
* Connection: RBUS1, Pin: DCC1_P_G_L_CC, sw_matrix_pin: 87.0, Register: 1722
VDCC1_P_G_L_CC_to_RBUS1 PROBE<1722> VDD 0
* Connection: RBUS2, Pin: DCC1_N_D_L_CC, sw_matrix_pin: 59.0, Register: 1268
VDCC1_N_D_L_CC_to_RBUS2 PROBE<1268> VDD 0
* Connection: RBUS2, Pin: DCC1_P_D_L_CC, sw_matrix_pin: 1.0, Register: 312
VDCC1_P_D_L_CC_to_RBUS2 PROBE<312> VDD 0
* Connection: RBUS2, Pin: DCC1_N_G_R_CC, sw_matrix_pin: 57.0, Register: 1266
VDCC1_N_G_R_CC_to_RBUS2 PROBE<1266> VDD 0
* Connection: RBUS2, Pin: DCC1_P_G_R_CC, sw_matrix_pin: 89.0, Register: 1747
VDCC1_P_G_R_CC_to_RBUS2 PROBE<1747> VDD 0
* Connection: RBUS3, Pin: DCC1_N_D_R_CC, sw_matrix_pin: 61.0, Register: 1293
VDCC1_N_D_R_CC_to_RBUS3 PROBE<1293> VDD 0
* Connection: RBUS3, Pin: DCC1_P_D_R_CC, sw_matrix_pin: 3.0, Register: 337
VDCC1_P_D_R_CC_to_RBUS3 PROBE<337> VDD 0
* Connection: RBUS3, Pin: DCC2_N_G_L_CC, sw_matrix_pin: 31.0, Register: 814
VDCC2_N_G_L_CC_to_RBUS3 PROBE<814> VDD 0
* Connection: RBUS3, Pin: DCC2_P_G_L_CC, sw_matrix_pin: 64.0, Register: 1296
VDCC2_P_G_L_CC_to_RBUS3 PROBE<1296> VDD 0
* Connection: RBUS4, Pin: DCC2_N_D_L_CC, sw_matrix_pin: 35.0, Register: 841
VDCC2_N_D_L_CC_to_RBUS4 PROBE<841> VDD 0
* Connection: RBUS4, Pin: DCC2_P_D_L_CC, sw_matrix_pin: 68.0, Register: 1323
VDCC2_P_D_L_CC_to_RBUS4 PROBE<1323> VDD 0
* Connection: RBUS4, Pin: DCC2_N_G_R_CC, sw_matrix_pin: 33.0, Register: 839
VDCC2_N_G_R_CC_to_RBUS4 PROBE<839> VDD 0
* Connection: RBUS4, Pin: DCC2_P_G_R_CC, sw_matrix_pin: 66.0, Register: 1321
VDCC2_P_G_R_CC_to_RBUS4 PROBE<1321> VDD 0
* Connection: RBUS5, Pin: DCC2_N_D_R_CC, sw_matrix_pin: 37.0, Register: 866
VDCC2_N_D_R_CC_to_RBUS5 PROBE<866> VDD 0
* Connection: RBUS5, Pin: DCC2_P_D_R_CC, sw_matrix_pin: 70.0, Register: 1797
VDCC2_P_D_R_CC_to_RBUS5 PROBE<1797> VDD 0
* Connection: RBUS5, Pin: DCC3_N_G_L_CC, sw_matrix_pin: 39.0, Register: 868
VDCC3_N_G_L_CC_to_RBUS5 PROBE<868> VDD 0
* Connection: RBUS5, Pin: DCC3_P_G_L_CC, sw_matrix_pin: 48.0, Register: 1326
VDCC3_P_G_L_CC_to_RBUS5 PROBE<1326> VDD 0
* Connection: RBUS6, Pin: DCC3_N_D_L_CC, sw_matrix_pin: 43.0, Register: 895
VDCC3_N_D_L_CC_to_RBUS6 PROBE<895> VDD 0
* Connection: RBUS6, Pin: DCC3_P_D_L_CC, sw_matrix_pin: 52.0, Register: 1353
VDCC3_P_D_L_CC_to_RBUS6 PROBE<1353> VDD 0
Vprobe_1_to_VSS PROBE<1> VSS 0
Vprobe_2_to_VSS PROBE<2> VSS 0
Vprobe_3_to_VSS PROBE<3> VSS 0
Vprobe_4_to_VSS PROBE<4> VSS 0
Vprobe_5_to_VSS PROBE<5> VSS 0
Vprobe_6_to_VSS PROBE<6> VSS 0
Vprobe_7_to_VSS PROBE<7> VSS 0
Vprobe_8_to_VSS PROBE<8> VSS 0
Vprobe_9_to_VSS PROBE<9> VSS 0
Vprobe_10_to_VSS PROBE<10> VSS 0
Vprobe_11_to_VSS PROBE<11> VSS 0
Vprobe_12_to_VSS PROBE<12> VSS 0
Vprobe_13_to_VSS PROBE<13> VSS 0
Vprobe_14_to_VSS PROBE<14> VSS 0
Vprobe_15_to_VSS PROBE<15> VSS 0
Vprobe_16_to_VSS PROBE<16> VSS 0
Vprobe_17_to_VSS PROBE<17> VSS 0
Vprobe_18_to_VSS PROBE<18> VSS 0
Vprobe_19_to_VSS PROBE<19> VSS 0
Vprobe_20_to_VSS PROBE<20> VSS 0
Vprobe_21_to_VSS PROBE<21> VSS 0
Vprobe_22_to_VSS PROBE<22> VSS 0
Vprobe_23_to_VSS PROBE<23> VSS 0
Vprobe_24_to_VSS PROBE<24> VSS 0
Vprobe_25_to_VSS PROBE<25> VSS 0
Vprobe_26_to_VSS PROBE<26> VSS 0
Vprobe_27_to_VSS PROBE<27> VSS 0
Vprobe_28_to_VSS PROBE<28> VSS 0
Vprobe_29_to_VSS PROBE<29> VSS 0
Vprobe_30_to_VSS PROBE<30> VSS 0
Vprobe_31_to_VSS PROBE<31> VSS 0
Vprobe_32_to_VSS PROBE<32> VSS 0
Vprobe_33_to_VSS PROBE<33> VSS 0
Vprobe_34_to_VSS PROBE<34> VSS 0
Vprobe_35_to_VSS PROBE<35> VSS 0
Vprobe_36_to_VSS PROBE<36> VSS 0
Vprobe_37_to_VSS PROBE<37> VSS 0
Vprobe_38_to_VSS PROBE<38> VSS 0
Vprobe_39_to_VSS PROBE<39> VSS 0
Vprobe_40_to_VSS PROBE<40> VSS 0
Vprobe_41_to_VSS PROBE<41> VSS 0
Vprobe_42_to_VSS PROBE<42> VSS 0
Vprobe_43_to_VSS PROBE<43> VSS 0
Vprobe_44_to_VSS PROBE<44> VSS 0
Vprobe_45_to_VSS PROBE<45> VSS 0
Vprobe_46_to_VSS PROBE<46> VSS 0
Vprobe_47_to_VSS PROBE<47> VSS 0
Vprobe_48_to_VSS PROBE<48> VSS 0
Vprobe_49_to_VSS PROBE<49> VSS 0
Vprobe_50_to_VSS PROBE<50> VSS 0
Vprobe_51_to_VSS PROBE<51> VSS 0
Vprobe_52_to_VSS PROBE<52> VSS 0
Vprobe_53_to_VSS PROBE<53> VSS 0
Vprobe_54_to_VSS PROBE<54> VSS 0
Vprobe_55_to_VSS PROBE<55> VSS 0
Vprobe_56_to_VSS PROBE<56> VSS 0
Vprobe_57_to_VSS PROBE<57> VSS 0
Vprobe_58_to_VSS PROBE<58> VSS 0
Vprobe_59_to_VSS PROBE<59> VSS 0
Vprobe_60_to_VSS PROBE<60> VSS 0
Vprobe_61_to_VSS PROBE<61> VSS 0
Vprobe_62_to_VSS PROBE<62> VSS 0
Vprobe_63_to_VSS PROBE<63> VSS 0
Vprobe_64_to_VSS PROBE<64> VSS 0
Vprobe_65_to_VSS PROBE<65> VSS 0
Vprobe_66_to_VSS PROBE<66> VSS 0
Vprobe_67_to_VSS PROBE<67> VSS 0
Vprobe_68_to_VSS PROBE<68> VSS 0
Vprobe_69_to_VSS PROBE<69> VSS 0
Vprobe_70_to_VSS PROBE<70> VSS 0
Vprobe_71_to_VSS PROBE<71> VSS 0
Vprobe_72_to_VSS PROBE<72> VSS 0
Vprobe_73_to_VSS PROBE<73> VSS 0
Vprobe_74_to_VSS PROBE<74> VSS 0
Vprobe_75_to_VSS PROBE<75> VSS 0
Vprobe_76_to_VSS PROBE<76> VSS 0
Vprobe_77_to_VSS PROBE<77> VSS 0
Vprobe_78_to_VSS PROBE<78> VSS 0
Vprobe_79_to_VSS PROBE<79> VSS 0
Vprobe_80_to_VSS PROBE<80> VSS 0
Vprobe_81_to_VSS PROBE<81> VSS 0
Vprobe_82_to_VSS PROBE<82> VSS 0
Vprobe_83_to_VSS PROBE<83> VSS 0
Vprobe_84_to_VSS PROBE<84> VSS 0
Vprobe_85_to_VSS PROBE<85> VSS 0
Vprobe_86_to_VSS PROBE<86> VSS 0
Vprobe_87_to_VSS PROBE<87> VSS 0
Vprobe_88_to_VSS PROBE<88> VSS 0
Vprobe_89_to_VSS PROBE<89> VSS 0
Vprobe_90_to_VSS PROBE<90> VSS 0
Vprobe_91_to_VSS PROBE<91> VSS 0
Vprobe_92_to_VSS PROBE<92> VSS 0
Vprobe_93_to_VSS PROBE<93> VSS 0
Vprobe_94_to_VSS PROBE<94> VSS 0
Vprobe_95_to_VSS PROBE<95> VSS 0
Vprobe_96_to_VSS PROBE<96> VSS 0
Vprobe_97_to_VSS PROBE<97> VSS 0
Vprobe_98_to_VSS PROBE<98> VSS 0
Vprobe_99_to_VSS PROBE<99> VSS 0
Vprobe_100_to_VSS PROBE<100> VSS 0
Vprobe_101_to_VSS PROBE<101> VSS 0
Vprobe_102_to_VSS PROBE<102> VSS 0
Vprobe_103_to_VSS PROBE<103> VSS 0
Vprobe_104_to_VSS PROBE<104> VSS 0
Vprobe_105_to_VSS PROBE<105> VSS 0
Vprobe_106_to_VSS PROBE<106> VSS 0
Vprobe_107_to_VSS PROBE<107> VSS 0
Vprobe_108_to_VSS PROBE<108> VSS 0
Vprobe_109_to_VSS PROBE<109> VSS 0